21
C6H6
C      0.16410   -1.37260   -0.00020
C     -1.10660   -0.82840    0.00010
C     -1.27070    0.54420    0.00000
C     -0.16410    1.37260    0.00000
C      1.10660    0.82840    0.00060
C      1.27070   -0.54420   -0.00070
C      0.34691   -2.90170    0.00636
H     -0.29230    2.44490   -0.00080
H      1.97120    1.47560   -0.00010
H      2.26350   -0.96930    0.00020
H      1.11874   -3.19431   -0.73665
H     -0.61149   -3.39910   -0.25331
H      0.66848   -3.24064    1.01389
C     -2.43860   -1.60130   -0.00010
C     -3.70391   -1.00439   -0.00063
C     -3.81963    0.38986   -0.00092
C     -2.67004    1.18720   -0.00067
H     -2.75957    2.26583   -0.00089
H     -2.34908   -2.67993    0.00011
H     -4.79851    0.85164   -0.00133
H     -4.59328   -1.62124   -0.00083
